Circuit: * D:\DePFET\LCR_meter\Signl generator\signal_generator.asc

Direct Newton iteration for .op point succeeded.

Date: Tue Sep 20 21:54:37 2022
Total elapsed time: 0.174 seconds.

tnom = 27
temp = 27
method = modified trap
totiter = 29809
traniter = 29801
tranpoints = 7708
accept = 6049
rejected = 1659
matrix size = 16
fillins = 0
solver = Normal
Matrix Compiler1: 448 bytes object code size  0.3/0.1/[0.0]
Matrix Compiler2: off  [0.1]/0.2/0.2

